Version 4
SHEET 1 3568 680
WIRE -720 -560 -896 -560
WIRE -640 -560 -720 -560
WIRE -560 -560 -640 -560
WIRE -288 -560 -560 -560
WIRE 32 -560 -288 -560
WIRE 864 -560 32 -560
WIRE 1216 -560 864 -560
WIRE 1328 -560 1216 -560
WIRE 1664 -560 1328 -560
WIRE 1216 -496 1216 -560
WIRE -288 -384 -288 -560
WIRE 1216 -384 1216 -432
WIRE 1440 -384 1216 -384
WIRE 1600 -384 1520 -384
WIRE 2240 -384 1600 -384
WIRE 192 -304 -64 -304
WIRE 2240 -288 608 -288
WIRE 1328 -240 1328 -560
WIRE 32 -224 32 -560
WIRE 1216 -224 1216 -384
WIRE 1296 -224 1216 -224
WIRE -64 -208 -64 -304
WIRE 0 -208 -64 -208
WIRE 1600 -208 1600 -384
WIRE 1600 -208 1360 -208
WIRE -896 -192 -896 -560
WIRE 192 -192 192 -304
WIRE 192 -192 64 -192
WIRE 256 -192 192 -192
WIRE 336 -192 256 -192
WIRE 416 -192 336 -192
WIRE 608 -192 608 -288
WIRE 608 -192 416 -192
WIRE 688 -192 608 -192
WIRE 832 -192 688 -192
WIRE 1008 -192 912 -192
WIRE 1136 -192 1008 -192
WIRE 1296 -192 1136 -192
WIRE -720 -176 -720 -560
WIRE -640 -176 -640 -560
WIRE -560 -176 -560 -560
WIRE -288 -176 -288 -304
WIRE -176 -176 -288 -176
WIRE 0 -176 -176 -176
WIRE 720 -64 624 -64
WIRE 1216 -64 1216 -224
WIRE 1216 -64 800 -64
WIRE 32 -48 32 -160
WIRE 32 -48 -144 -48
WIRE 256 -16 256 -192
WIRE 336 -16 336 -192
WIRE 416 -16 416 -192
WIRE 1008 0 1008 -192
WIRE -288 16 -288 -176
WIRE 1664 16 1664 -560
WIRE 1712 16 1664 16
WIRE 2016 16 1968 16
WIRE 2096 16 2016 16
WIRE 2176 16 2096 16
WIRE 2240 16 2176 16
WIRE 1216 32 1216 -64
WIRE 624 48 624 -64
WIRE 2016 80 2016 16
WIRE 2096 80 2096 16
WIRE 2176 80 2176 16
WIRE -896 224 -896 -112
WIRE -720 224 -720 -112
WIRE -720 224 -896 224
WIRE -640 224 -640 -112
WIRE -640 224 -720 224
WIRE -560 224 -560 -112
WIRE -560 224 -640 224
WIRE -288 224 -288 96
WIRE -288 224 -560 224
WIRE -160 224 -288 224
WIRE -144 224 -144 -48
WIRE -144 224 -160 224
WIRE 256 224 256 48
WIRE 256 224 -144 224
WIRE 336 224 336 48
WIRE 336 224 256 224
WIRE 416 224 416 48
WIRE 416 224 336 224
WIRE 624 224 624 128
WIRE 624 224 416 224
WIRE 1008 224 1008 80
WIRE 1008 224 624 224
WIRE 1216 224 1216 96
WIRE 1216 224 1008 224
WIRE 1328 224 1328 -176
WIRE 1328 224 1216 224
WIRE 1840 224 1840 112
WIRE 1840 224 1328 224
WIRE 2016 224 2016 144
WIRE 2016 224 1840 224
WIRE 2096 224 2096 144
WIRE 2096 224 2016 224
WIRE 2176 224 2176 144
WIRE 2176 224 2096 224
WIRE -160 256 -160 224
FLAG -160 256 0
FLAG 864 -560 PWR
FLAG 688 -192 Vref
FLAG 1136 -192 V_U2+
FLAG -176 -176 V_U1+
FLAG 2240 -288 Vref_1.65V
FLAG 2240 16 Vref_2.048V
FLAG 2240 -384 Vout
FLAG 624 -64 Vin
SYMBOL voltage -896 -208 R0
WINDOW 0 26 16 Left 2
WINDOW 3 41 44 Left 2
WINDOW 123 0 0 Left 0
WINDOW 39 0 0 Left 0
SYMATTR InstName V_pwr_in
SYMATTR Value 3.3V
SYMBOL cap -736 -176 R0
SYMATTR InstName C1
SYMATTR Value 2.7µ
SYMBOL cap -656 -176 R0
SYMATTR InstName C2
SYMATTR Value 0.27µ
SYMBOL cap -576 -176 R0
SYMATTR InstName C3
SYMATTR Value 0.027µ
SYMBOL res -304 -400 R0
SYMATTR InstName R1
SYMATTR Value 1Meg
SYMBOL res -304 0 R0
SYMATTR InstName R2
SYMATTR Value 1Meg
SYMBOL res 928 -208 R90
WINDOW 0 0 56 VBottom 2
WINDOW 3 32 56 VTop 2
SYMATTR InstName R3
SYMATTR Value 47k
SYMBOL res 1024 96 R180
WINDOW 0 36 76 Left 2
WINDOW 3 36 40 Left 2
SYMATTR InstName R4
SYMATTR Value 470k
SYMBOL res 816 -80 R90
WINDOW 0 0 56 VBottom 2
WINDOW 3 32 56 VTop 2
SYMATTR InstName Rin
SYMATTR Value 1Meg
SYMBOL res 1536 -400 R90
WINDOW 0 0 56 VBottom 2
WINDOW 3 32 56 VTop 2
SYMATTR InstName Rf
SYMATTR Value 100k
SYMBOL voltage 624 32 R0
WINDOW 123 0 0 Left 0
WINDOW 39 0 0 Left 0
WINDOW 3 35 83 Left 2
SYMATTR Value SINE(0 15.9 300k)
SYMATTR InstName V_signal_in
SYMBOL diode 1232 -432 R180
WINDOW 0 24 64 Left 2
WINDOW 3 24 0 Left 2
SYMATTR InstName D1
SYMATTR Value 1N4148
SYMBOL diode 1232 96 R180
WINDOW 0 24 64 Left 2
WINDOW 3 24 0 Left 2
SYMATTR InstName D2
SYMATTR Value 1N4148
SYMBOL OpAmps\\AD8605 32 -256 R0
SYMATTR InstName U1
SYMBOL OpAmps\\AD8091 1328 -272 R0
SYMATTR InstName U2
SYMBOL References\\ADR4520 1840 16 R0
SYMATTR InstName U3
SYMBOL cap 240 -16 R0
SYMATTR InstName C4
SYMATTR Value 2.7µ
SYMBOL cap 320 -16 R0
SYMATTR InstName C5
SYMATTR Value 0.27µ
SYMBOL cap 400 -16 R0
SYMATTR InstName C6
SYMATTR Value 27n
SYMBOL cap 2000 80 R0
SYMATTR InstName C7
SYMATTR Value 2.7µ
SYMBOL cap 2080 80 R0
SYMATTR InstName C8
SYMATTR Value 0.27µ
SYMBOL cap 2160 80 R0
SYMATTR InstName C9
SYMATTR Value 27n
TEXT 464 464 Left 2 !.tran 0 40u 20u
